<?xml version="1.0" encoding="UTF-8"?>

<!-- generated on 01/11/21 16:53:18 by Eclipse SUMO netedit Version 1.8.0
<configuration xmlns:xsi="http://www.w3.org/2001/XMLSchema-instance" xsi:noNamespaceSchemaLocation="http://sumo.dlr.de/xsd/netconvertConfiguration.xsd">

    <input>
        <sumo-net-file value="C:\Users\zgj_t\Desktop\crossroad_mpc\sumo_files\a.net.xml"/>
    </input>

    <output>
        <output-file value="C:\Users\zgj_t\Desktop\crossroad_mpc\sumo_files\a.net.xml"/>
    </output>

    <processing>
        <geometry.min-radius.fix.railways value="false"/>
        <geometry.max-grade.fix value="false"/>
        <offset.disable-normalization value="true"/>
        <lefthand value="false"/>
    </processing>

    <junctions>
        <no-turnarounds value="true"/>
        <junctions.corner-detail value="5"/>
        <junctions.limit-turn-speed value="5.5"/>
        <rectangular-lane-cut value="false"/>
    </junctions>

    <pedestrian>
        <walkingareas value="false"/>
    </pedestrian>

    <netedit>
        <route-files value="C:\Users\zgj_t\Desktop\crossroad_mpc\sumo_files\cross.rou.xml"/>
    </netedit>

    <report>
        <aggregate-warnings value="5"/>
    </report>

</configuration>
-->

<routes xmlns:xsi="http://www.w3.org/2001/XMLSchema-instance" xsi:noNamespaceSchemaLocation="http://sumo.dlr.de/xsd/routes_file.xsd">
    <vType id="car_1" length="4.0" minGap="2.50" maxSpeed="9.00" speedFactor="normc(1.00,0.00)" vClass="passenger" impatience="0.00" guiShape="passenger" width="1.60" color="24,0,255" maxSpeedLat="1.00" latAlignment="center" minGapLat="0.10" laneChangeModel="SL2015" carFollowModel="Krauss" accel="2.6" decel="7" emergencyDecel="7" apparentDecel="7" sigma="0.5" tau="1"/>
    <vType id="car_2" length="4.0" minGap="2.50" maxSpeed="9.00" speedFactor="normc(1.00,0.00)" vClass="passenger" impatience="0.00" guiShape="passenger" width="1.78" color="62,62,62,235" maxSpeedLat="1.00" latAlignment="center" minGapLat="0.10" laneChangeModel="SL2015" carFollowModel="Krauss" accel="2.6" decel="7" emergencyDecel="7" apparentDecel="7" sigma="0.5" tau="1"/>
    <vType id="car_3" length="4.0" minGap="2.50" maxSpeed="9.00" speedFactor="normc(1.00,0.00)" vClass="passenger" impatience="0.00" guiShape="passenger" width="1.78" color="255,255,255,186" maxSpeedLat="1.00" latAlignment="center" minGapLat="0.10" laneChangeModel="SL2015" carFollowModel="Krauss" accel="2.6" decel="7" emergencyDecel="7" apparentDecel="7" sigma="0.5" tau="1"/>
    <vType id="self_car" length="4.0" maxSpeed="9.00" guiShape="passenger/wagon" width="1.80" color="magenta" accel="3.5" decel="7" sigma="1.0"/>
    <route edges="a1toa2 a2toa3 a3toa4 a4toa1" color="yellow" id="circle"/> 
    <route edges="1o 4i" color="yellow" id="dl"/>
    <route edges="1o 2i" color="yellow" id="dr"/>
    <route edges="1o 3i" color="yellow" id="du"/>
    <route edges="4o 1i" color="yellow" id="ld"/>
    <route edges="4o 2i" color="yellow" id="lr"/>
    <route edges="4o 3i" color="yellow" id="lu"/>
    <route edges="2o 1i" color="yellow" id="rd"/>
    <route edges="2o 4i" color="yellow" id="rl"/>
    <route edges="2o 3i" color="yellow" id="ru"/>
    <route edges="3o 1i" color="yellow" id="ud"/>
    <route edges="3o 4i" color="yellow" id="ul"/>
    <route edges="3o 2i" color="yellow" id="ur"/>
    <vehicle id="collector" type="car_1" depart="0.00" route="circle"/>
    <flow id="carflow_1.1" type="car_1" begin="0.00" departLane="best" departPos="base" departSpeed="8" from="1o" to="4i" vehsPerHour="600.00"/>
    <flow id="carflow_1.2" type="car_1" begin="0.00" departLane="best" departPos="random" departSpeed="8" from="2o" to="1i" vehsPerHour="600.00"/>
    <flow id="carflow_1.3" type="car_1" begin="0.00" departLane="best" departPos="random" departSpeed="8" from="3o" to="2i" vehsPerHour="600.00"/>
    <flow id="carflow_1.4" type="car_1" begin="0.00" departLane="best" departPos="random" departSpeed="8" from="4o" to="3i" vehsPerHour="600.00"/>
    <flow id="carflow_2.1" type="car_2" begin="0.00" departLane="best" departPos="random" departSpeed="8" from="1o" to="3i" vehsPerHour="600.00"/>
    <flow id="carflow_2.2" type="car_2" begin="0.00" departLane="best" departPos="random" departSpeed="8" from="2o" to="4i" vehsPerHour="600.00"/>
    <flow id="carflow_2.3" type="car_2" begin="0.00" departLane="best" departPos="base" departSpeed="8" from="3o" to="1i" vehsPerHour="600.00"/>
    <flow id="carflow_2.4" type="car_2" begin="0.00" departLane="best" departPos="random" departSpeed="random" from="4o" to="2i" vehsPerHour="600.00"/>
    <flow id="carflow_3.1" type="car_3" begin="0.00" departLane="best" departPos="random" departSpeed="random" from="1o" to="2i" vehsPerHour="600.00"/>
    <flow id="carflow_3.2" type="car_3" begin="0.00" departLane="best" departPos="random" departSpeed="random" from="2o" to="3i" vehsPerHour="600.00"/>
    <flow id="carflow_3.3" type="car_3" begin="0.00" departLane="best" departPos="random" departSpeed="random" from="3o" to="4i" vehsPerHour="600.00"/>
    <flow id="carflow_3.4" type="car_3" begin="0.00" departLane="best" departPos="random" departSpeed="random" from="4o" to="1i" vehsPerHour="600.00"/>
</routes>
